AMOSTRA/ABA/Reguladores.dss
! REGULADORES — gerados de UNREMT
! vreg = 122 V e band = 2 V — AJUSTES TIPICOS, nao de campo.
! kVA = 5000 adotado; a BDGD nao traz a potencia do regulador.
! O ptratio segue a tensao de cada alimentador (TP para 120 V).
New Transformer.REG_2746886_1 phases=1 windings=2 XHL=0.04
~ buses=[15842-10701432f.1 15842-10701432r.1] conns=[wye wye]
~ kVs=[19.9186 19.9186] kVAs=[5000 5000] %Rs=[0.01 0.01]
~ maxtap=1.10 mintap=0.90 numtaps=32
New RegControl.RC_REG_2746886_1 transformer=REG_2746886_1 winding=2 vreg=122 band=2 ptratio=165.99 delay=15 maxtapchange=1
New Transformer.REG_2746886_2 phases=1 windings=2 XHL=0.04
~ buses=[15842-10701432f.2 15842-10701432r.2] conns=[wye wye]
~ kVs=[19.9186 19.9186] kVAs=[5000 5000] %Rs=[0.01 0.01]
~ maxtap=1.10 mintap=0.90 numtaps=32
New RegControl.RC_REG_2746886_2 transformer=REG_2746886_2 winding=2 vreg=122 band=2 ptratio=165.99 delay=15 maxtapchange=1
New Transformer.REG_2746886_3 phases=1 windings=2 XHL=0.04
~ buses=[15842-10701432f.3 15842-10701432r.3] conns=[wye wye]
~ kVs=[19.9186 19.9186] kVAs=[5000 5000] %Rs=[0.01 0.01]
~ maxtap=1.10 mintap=0.90 numtaps=32
New RegControl.RC_REG_2746886_3 transformer=REG_2746886_3 winding=2 vreg=122 band=2 ptratio=165.99 delay=15 maxtapchange=1
New Transformer.REG_2748243_1 phases=1 windings=2 XHL=0.04
~ buses=[15842-10699546f.1 15842-10699546r.1] conns=[wye wye]
~ kVs=[19.9186 19.9186] kVAs=[5000 5000] %Rs=[0.01 0.01]
~ maxtap=1.10 mintap=0.90 numtaps=32
New RegControl.RC_REG_2748243_1 transformer=REG_2748243_1 winding=2 vreg=122 band=2 ptratio=165.99 delay=15 maxtapchange=1
New Transformer.REG_2748243_2 phases=1 windings=2 XHL=0.04
~ buses=[15842-10699546f.2 15842-10699546r.2] conns=[wye wye]
~ kVs=[19.9186 19.9186] kVAs=[5000 5000] %Rs=[0.01 0.01]
~ maxtap=1.10 mintap=0.90 numtaps=32
New RegControl.RC_REG_2748243_2 transformer=REG_2748243_2 winding=2 vreg=122 band=2 ptratio=165.99 delay=15 maxtapchange=1
New Transformer.REG_2748243_3 phases=1 windings=2 XHL=0.04
~ buses=[15842-10699546f.3 15842-10699546r.3] conns=[wye wye]
~ kVs=[19.9186 19.9186] kVAs=[5000 5000] %Rs=[0.01 0.01]
~ maxtap=1.10 mintap=0.90 numtaps=32
New RegControl.RC_REG_2748243_3 transformer=REG_2748243_3 winding=2 vreg=122 band=2 ptratio=165.99 delay=15 maxtapchange=1
New Transformer.REG_3134135_1 phases=1 windings=2 XHL=0.04
~ buses=[26282-12561024f.1 26282-12561024r.1] conns=[wye wye]
~ kVs=[7.9674 7.9674] kVAs=[5000 5000] %Rs=[0.01 0.01]
~ maxtap=1.10 mintap=0.90 numtaps=32
New RegControl.RC_REG_3134135_1 transformer=REG_3134135_1 winding=2 vreg=122 band=2 ptratio=66.4 delay=15 maxtapchange=1
New Transformer.REG_3134135_2 phases=1 windings=2 XHL=0.04
~ buses=[26282-12561024f.2 26282-12561024r.2] conns=[wye wye]
~ kVs=[7.9674 7.9674] kVAs=[5000 5000] %Rs=[0.01 0.01]
~ maxtap=1.10 mintap=0.90 numtaps=32
New RegControl.RC_REG_3134135_2 transformer=REG_3134135_2 winding=2 vreg=122 band=2 ptratio=66.4 delay=15 maxtapchange=1
New Transformer.REG_3134135_3 phases=1 windings=2 XHL=0.04
~ buses=[26282-12561024f.3 26282-12561024r.3] conns=[wye wye]
~ kVs=[7.9674 7.9674] kVAs=[5000 5000] %Rs=[0.01 0.01]
~ maxtap=1.10 mintap=0.90 numtaps=32
New RegControl.RC_REG_3134135_3 transformer=REG_3134135_3 winding=2 vreg=122 band=2 ptratio=66.4 delay=15 maxtapchange=1
New Transformer.REG_2846138_1 phases=1 windings=2 XHL=0.04
~ buses=[25323-11273189f.1 25323-11273189r.1] conns=[wye wye]
~ kVs=[19.9186 19.9186] kVAs=[5000 5000] %Rs=[0.01 0.01]
~ maxtap=1.10 mintap=0.90 numtaps=32
New RegControl.RC_REG_2846138_1 transformer=REG_2846138_1 winding=2 vreg=122 band=2 ptratio=165.99 delay=15 maxtapchange=1
New Transformer.REG_2846138_2 phases=1 windings=2 XHL=0.04
~ buses=[25323-11273189f.2 25323-11273189r.2] conns=[wye wye]
~ kVs=[19.9186 19.9186] kVAs=[5000 5000] %Rs=[0.01 0.01]
~ maxtap=1.10 mintap=0.90 numtaps=32
New RegControl.RC_REG_2846138_2 transformer=REG_2846138_2 winding=2 vreg=122 band=2 ptratio=165.99 delay=15 maxtapchange=1
New Transformer.REG_2846138_3 phases=1 windings=2 XHL=0.04
~ buses=[25323-11273189f.3 25323-11273189r.3] conns=[wye wye]
~ kVs=[19.9186 19.9186] kVAs=[5000 5000] %Rs=[0.01 0.01]
~ maxtap=1.10 mintap=0.90 numtaps=32
New RegControl.RC_REG_2846138_3 transformer=REG_2846138_3 winding=2 vreg=122 band=2 ptratio=165.99 delay=15 maxtapchange=1
New Transformer.REG_2987204_1 phases=1 windings=2 XHL=0.04
~ buses=[15662-11291966r.1 15662-11291966f.1] conns=[wye wye]
~ kVs=[19.9186 19.9186] kVAs=[5000 5000] %Rs=[0.01 0.01]
~ maxtap=1.10 mintap=0.90 numtaps=32
New RegControl.RC_REG_2987204_1 transformer=REG_2987204_1 winding=2 vreg=122 band=2 ptratio=165.99 delay=15 maxtapchange=1
New Transformer.REG_2987204_2 phases=1 windings=2 XHL=0.04
~ buses=[15662-11291966r.2 15662-11291966f.2] conns=[wye wye]
~ kVs=[19.9186 19.9186] kVAs=[5000 5000] %Rs=[0.01 0.01]
~ maxtap=1.10 mintap=0.90 numtaps=32
New RegControl.RC_REG_2987204_2 transformer=REG_2987204_2 winding=2 vreg=122 band=2 ptratio=165.99 delay=15 maxtapchange=1
New Transformer.REG_2987204_3 phases=1 windings=2 XHL=0.04
~ buses=[15662-11291966r.3 15662-11291966f.3] conns=[wye wye]
~ kVs=[19.9186 19.9186] kVAs=[5000 5000] %Rs=[0.01 0.01]
~ maxtap=1.10 mintap=0.90 numtaps=32
New RegControl.RC_REG_2987204_3 transformer=REG_2987204_3 winding=2 vreg=122 band=2 ptratio=165.99 delay=15 maxtapchange=1
New Transformer.REG_3091996_1 phases=1 windings=2 XHL=0.04
~ buses=[15662-12199435r.1 15662-12199435f.1] conns=[wye wye]
~ kVs=[19.9186 19.9186] kVAs=[5000 5000] %Rs=[0.01 0.01]
~ maxtap=1.10 mintap=0.90 numtaps=32
New RegControl.RC_REG_3091996_1 transformer=REG_3091996_1 winding=2 vreg=122 band=2 ptratio=165.99 delay=15 maxtapchange=1
New Transformer.REG_3091996_2 phases=1 windings=2 XHL=0.04
~ buses=[15662-12199435r.2 15662-12199435f.2] conns=[wye wye]
~ kVs=[19.9186 19.9186] kVAs=[5000 5000] %Rs=[0.01 0.01]
~ maxtap=1.10 mintap=0.90 numtaps=32
New RegControl.RC_REG_3091996_2 transformer=REG_3091996_2 winding=2 vreg=122 band=2 ptratio=165.99 delay=15 maxtapchange=1
New Transformer.REG_3091996_3 phases=1 windings=2 XHL=0.04
~ buses=[15662-12199435r.3 15662-12199435f.3] conns=[wye wye]
~ kVs=[19.9186 19.9186] kVAs=[5000 5000] %Rs=[0.01 0.01]
~ maxtap=1.10 mintap=0.90 numtaps=32
New RegControl.RC_REG_3091996_3 transformer=REG_3091996_3 winding=2 vreg=122 band=2 ptratio=165.99 delay=15 maxtapchange=1
